Version 4
SHEET 1 1068 1176
WIRE 128 -576 -80 -576
WIRE 320 -576 128 -576
WIRE 512 -576 320 -576
WIRE 320 -560 320 -576
WIRE 144 -496 32 -496
WIRE 320 -496 224 -496
WIRE 320 -480 320 -496
WIRE 368 -480 320 -480
WIRE 368 -464 368 -480
WIRE 320 -432 320 -480
WIRE 320 -432 224 -432
WIRE 416 -432 320 -432
WIRE 32 -416 32 -496
WIRE 128 -416 128 -576
WIRE 224 -416 224 -432
WIRE 320 -416 320 -432
WIRE 416 -416 416 -432
WIRE -32 -352 -176 -352
WIRE 624 -352 480 -352
WIRE 512 -336 512 -576
WIRE -80 -320 -80 -576
WIRE 672 -304 672 -336
WIRE 720 -304 672 -304
WIRE 736 -304 720 -304
WIRE 848 -304 816 -304
WIRE 880 -304 848 -304
WIRE 944 -304 880 -304
WIRE 992 -304 944 -304
WIRE -464 -288 -528 -288
WIRE -448 -288 -464 -288
WIRE -368 -288 -448 -288
WIRE -224 -288 -224 -336
WIRE -224 -288 -288 -288
WIRE -32 -256 -80 -256
WIRE 512 -256 512 -272
WIRE 512 -256 480 -256
WIRE 880 -224 880 -240
WIRE 928 -224 880 -224
WIRE 992 -224 928 -224
WIRE 928 -208 928 -224
WIRE -528 -192 -528 -208
WIRE -496 -192 -528 -192
WIRE -448 -192 -448 -224
WIRE -448 -192 -496 -192
WIRE -496 -176 -496 -192
WIRE -224 -160 -224 -288
WIRE -80 -160 -80 -192
WIRE -80 -160 -224 -160
WIRE -32 -160 -80 -160
WIRE 512 -160 512 -192
WIRE 512 -160 480 -160
WIRE 672 -160 672 -304
WIRE 672 -160 512 -160
WIRE -224 -144 -224 -160
WIRE 672 -144 672 -160
WIRE -32 -64 -176 -64
WIRE 624 -64 480 -64
WIRE -32 32 -128 32
WIRE 544 32 480 32
WIRE 624 32 544 32
WIRE 720 32 720 -304
WIRE 720 32 704 32
WIRE -128 128 -128 96
WIRE -32 128 -128 128
WIRE 544 128 544 96
WIRE 544 128 480 128
WIRE 848 128 848 -304
WIRE 848 128 544 128
WIRE -128 224 -128 208
WIRE -48 224 -128 224
WIRE -32 224 -48 224
WIRE 512 224 480 224
WIRE -32 320 -64 320
WIRE 528 320 480 320
WIRE -64 336 -64 320
WIRE 528 336 528 320
WIRE -32 416 -176 416
WIRE 576 416 480 416
WIRE -176 512 -176 480
WIRE -96 512 -176 512
WIRE 576 512 576 480
WIRE 576 512 544 512
WIRE -176 528 -176 512
WIRE 576 528 576 512
WIRE -32 704 -64 704
WIRE -64 720 -64 704
WIRE -144 800 -176 800
WIRE -32 800 -64 800
WIRE -16 800 -32 800
WIRE 512 800 480 800
WIRE 624 800 592 800
WIRE 128 880 128 864
WIRE 32 896 32 864
WIRE 320 896 320 864
WIRE 416 896 416 864
WIRE -176 1008 -176 800
WIRE 32 1008 32 976
WIRE 32 1008 -176 1008
WIRE 144 1008 32 1008
WIRE 224 1008 224 864
WIRE 224 1008 144 1008
WIRE 320 1008 320 976
WIRE 320 1008 224 1008
WIRE 416 1008 416 976
WIRE 416 1008 320 1008
WIRE 624 1008 624 800
WIRE 624 1008 416 1008
FLAG 368 -464 0
FLAG -224 -48 0
FLAG 672 -48 0
FLAG -224 -432 inV
FLAG 672 -432 inV
FLAG -176 528 0
FLAG 576 528 0
FLAG 928 -208 0
FLAG -496 -176 0
FLAG -64 336 0
FLAG 528 336 0
FLAG 944 -304 V01
FLAG -464 -288 V00
FLAG -224 -160 SW1
FLAG 672 -160 SW0
FLAG 32 -496 inV
FLAG -48 224 V00
FLAG 512 224 V01
FLAG 128 944 0
FLAG 128 880 25
FLAG 144 1072 0
FLAG -208 32 SW1
FLAG -64 720 0
SYMBOL PowerProducts\\LTC3884 224 224 R0
SYMATTR InstName U1
SYMATTR SpiceLine VIN_ON=5.5 VIN_OFF=5 Vout_0=3.3 Vout_1=1.8 Ilim0_range=1 Ilim1_range=1 OC_limit0=1 OC_limit1=1 Mode_ll=2 Fault_response=0 Retry_delay=.01m gm0=5m gm1=1m Rth0=6K Rth1=6K LowDcr=1
SYMATTR SpiceLine2 Freq=1000K PHs_0=0 PHs_1=180 Ton0_delay=.3m Ton0_rise=5m Ton1_delay=.3m Ton1_rise=5m Toff0_delay=.2m Toff0_fall=.3m Toff1_delay=.2m Toff1_fall=.3m Vout0_range=111 Vout1_range=111 Sync=0
SYMBOL nmos -176 -432 M0
SYMATTR InstName M1
SYMATTR Value BSC120N03MS
SYMBOL nmos -176 -144 M0
SYMATTR InstName M2
SYMATTR Value BSC120N03MS
SYMBOL nmos 624 -144 R0
SYMATTR InstName M3
SYMATTR Value BSC120N03MS
SYMBOL nmos 624 -432 R0
SYMATTR InstName M4
SYMATTR Value BSC120N03MS
SYMBOL cap -96 -256 R0
SYMATTR InstName C1
SYMATTR Value 1µ
SYMBOL cap 496 -256 R0
SYMATTR InstName C2
SYMATTR Value 1µ
SYMBOL ind -384 -272 R270
WINDOW 0 32 56 VTop 2
WINDOW 3 5 56 VBottom 2
SYMATTR InstName L1
SYMATTR Value 6.8µ
SYMATTR SpiceLine Ipk=10.4 Rser=26m Rpar=2072.4 Cpar=0
SYMBOL ind 720 -288 R270
WINDOW 0 32 56 VTop 2
WINDOW 3 5 56 VBottom 2
SYMATTR InstName L2
SYMATTR Value 6.8µ
SYMATTR SpiceLine Ipk=10.4 Rser=0.023 Rpar=2072.4 Cpar=0
SYMBOL cap 864 -304 R0
SYMATTR InstName C3
SYMATTR Value 100µ
SYMBOL cap -464 -288 R0
SYMATTR InstName C4
SYMATTR Value 100µ
SYMBOL res -544 -304 R0
SYMATTR InstName R1
SYMATTR Value 0.66
SYMBOL res 976 -320 R0
SYMATTR InstName R2
SYMATTR Value 0.2
SYMBOL cap -192 416 R0
SYMATTR InstName C5
SYMATTR Value 150p
SYMBOL cap -32 496 R90
WINDOW 0 0 32 VBottom 2
WINDOW 3 32 32 VTop 2
SYMATTR InstName C6
SYMATTR Value 1.5n
SYMBOL cap 544 496 R90
WINDOW 0 0 32 VBottom 2
WINDOW 3 32 32 VTop 2
SYMATTR InstName C7
SYMATTR Value 4700µ
SYMBOL cap 592 480 R180
WINDOW 0 24 56 Left 2
WINDOW 3 24 8 Left 2
SYMATTR InstName C8
SYMATTR Value 100p
SYMBOL voltage 128 -496 R270
WINDOW 0 32 56 VTop 2
WINDOW 3 -32 56 VBottom 2
WINDOW 123 0 0 Left 0
WINDOW 39 0 0 Left 0
SYMATTR InstName V1
SYMATTR Value 12
SYMBOL cap 528 32 R0
SYMATTR InstName C9
SYMATTR Value 0.22µ
SYMBOL res 720 16 R90
WINDOW 0 0 56 VBottom 2
WINDOW 3 32 56 VTop 2
SYMATTR InstName R7
SYMATTR Value 1.18k
SYMBOL res 400 880 R0
SYMATTR InstName R11
SYMATTR Value 10k
SYMBOL res 608 784 R90
WINDOW 0 0 56 VBottom 2
WINDOW 3 32 56 VTop 2
SYMATTR InstName R12
SYMATTR Value 10k
SYMBOL res -48 784 R90
WINDOW 0 0 56 VBottom 2
WINDOW 3 32 56 VTop 2
SYMATTR InstName R13
SYMATTR Value 10k
SYMBOL res 48 992 R180
WINDOW 0 36 76 Left 2
WINDOW 3 36 40 Left 2
SYMATTR InstName R14
SYMATTR Value 10k
SYMBOL cap 112 880 R0
SYMATTR InstName C10
SYMATTR Value 1µ
SYMBOL cap 128 1008 R0
SYMATTR InstName C11
SYMATTR Value 1µ
SYMBOL diode 496 -336 R0
SYMATTR InstName D1
SYMATTR Value CMDSH2-3
SYMBOL cap 304 -560 R0
SYMATTR InstName C12
SYMATTR Value 1µ
SYMBOL cap -144 32 R0
SYMATTR InstName C13
SYMATTR Value 0.22µ
SYMBOL res -112 16 R90
WINDOW 0 0 56 VBottom 2
WINDOW 3 32 56 VTop 2
SYMATTR InstName R15
SYMATTR Value 1.18k
SYMBOL schottky -96 -320 R0
SYMATTR InstName D2
SYMATTR Value CMDSH2-3
SYMBOL res -144 112 R0
SYMATTR InstName R16
SYMATTR Value 0
SYMBOL res 304 880 R0
SYMATTR InstName R8
SYMATTR Value 10k
TEXT -408 200 Left 2 !.tran 0.01
